---- qbsp / ericw-tools v0.18.1 ----
Input file: descent.map
Output file: descent.bsp

---- LoadMapFile ----
*** WARNING 06: No info_player_deathmatch entities in level
          185 faces
           29 brushes
            2 entities
            3 unique texnames
           14 texinfo

Opened WAD: C:/Users/devin/Documents/Quake-Level/Trenchbroom/quake-leveldesign-starterkit/wads/START.WAD
Opened WAD: C:/Users/devin/Documents/Quake-Level/Trenchbroom/quake-leveldesign-starterkit/wads/prototype_1_2.wad
Processing hull 0...
---- Brush_LoadEntity ----
           29 brushes
           69 planes
---- CSGFaces ----
          185 brushfaces
          147 csgfaces
          117 mergedfaces
---- SolidBSP ----
          132 split nodes
           40 solid leafs
           88 empty leafs
            5 water leafs
            0 detail leafs
            0 detail illusionary leafs
            0 detail fence leafs
            0 illusionary visblocker leafs
          497 leaffaces
          479 nodefaces
---- Portalize ----
           93 vis leafs
           93 vis clusters
          283 vis portals
---- FillOutside ----
*** WARNING 10: Reached occupant at (-0 -0 24), no filling performed.
Leak file written to descent.pts
---- MakeFaceEdges ----
---- GrowRegions ----
Processing hull 1...
*** WARNING 19: No entities in empty space -- no filling performed (hull 1)
Processing hull 2...
*** WARNING 19: No entities in empty space -- no filling performed (hull 2)
---- WriteBSPFile ----
Wrote descent.bsp
          163 planes             3260
          514 vertexes           6168
          132 nodes              3168
           14 texinfo             560
          479 faces              9580
          397 clipnodes          3176
           94 leafs              2632
          497 marksurfaces        994
         1903 surfedges          7612
         1130 edges              4520
            3 textures          49544
              lightdata             0
              visdata               0
              entdata             288

0.222 seconds elapsed
Peak memory usage: 2159646 (2.1M)
