---- qbsp / ericw-tools v0.18.1 ----
Input file: descent.map
Output file: descent.bsp

---- LoadMapFile ----
*** WARNING 06: No info_player_deathmatch entities in level
         1805 faces
          262 brushes
           26 entities
            4 unique texnames
          162 texinfo

Opened WAD: C:/Users/devin/Documents/Quake-Level/Trenchbroom/quake-leveldesign-starterkit/wads/START.WAD
Opened WAD: C:/Users/devin/Documents/Quake-Level/Trenchbroom/quake-leveldesign-starterkit/wads/prototype_1_2.wad
Processing hull 0...
---- Brush_LoadEntity ----
          251 brushes
          871 planes
---- CSGFaces ----
         1739 brushfaces
         2408 csgfaces
         1782 mergedfaces
---- SolidBSP ----
         2948 split nodes
         1227 solid leafs
         1606 empty leafs
          116 water leafs
            0 detail leafs
            0 detail illusionary leafs
            0 detail fence leafs
            0 illusionary visblocker leafs
         8962 leaffaces
         7958 nodefaces
---- Portalize ----
         1722 vis leafs
         1722 vis clusters
         5484 vis portals
---- FillOutside ----
*** WARNING 10: Reached occupant at (464 -1904 24), no filling performed.
Leak file written to descent.pts
---- MakeFaceEdges ----
---- GrowRegions ----
Processing hull 1...
*** WARNING 19: No entities in empty space -- no filling performed (hull 1)
Processing hull 2...
*** WARNING 19: No entities in empty space -- no filling performed (hull 2)
---- WriteBSPFile ----
Wrote descent.bsp
         1986 planes            39720
         9861 vertexes         118332
         3014 nodes             72336
          137 texinfo            5480
         8040 faces            160800
         5851 clipnodes         46808
         1789 leafs             50092
         9044 marksurfaces      18088
        31894 surfedges        127576
        20409 edges             81636
            6 textures          53308
              lightdata             0
              visdata               0
              entdata            2562

0.783 seconds elapsed
Peak memory usage: 36831576 (35.1M)
