---- qbsp / ericw-tools v0.18.1 ----
Input file: test.map
Output file: test.bsp

---- LoadMapFile ----
*** WARNING 02: Multiple info_player_start entities
*** WARNING 02: Multiple info_player_start entities
*** WARNING 02: Multiple info_player_start entities
*** WARNING 02: Multiple info_player_start entities
*** WARNING 06: No info_player_deathmatch entities in level
         4414 faces
          748 brushes
           83 entities
           15 unique texnames
          254 texinfo

Opened WAD: C:/Users/devin/Documents/Quake-Level/Trenchbroom/quake-leveldesign-starterkit/wads/hipnotic.wad
Processing hull 0...
---- Brush_LoadEntity ----
          738 brushes
         1454 planes
---- CSGFaces ----
         4354 brushfaces
         6045 csgfaces
         4842 mergedfaces
---- SolidBSP ----
         5872 split nodes
         2545 solid leafs
         2651 empty leafs
          677 water leafs
            0 detail leafs
            0 detail illusionary leafs
            0 detail fence leafs
            0 illusionary visblocker leafs
        15450 leaffaces
        13927 nodefaces
---- Portalize ----
         3328 vis leafs
         3328 vis clusters
        11126 vis portals
---- FillOutside ----
*** WARNING 10: Reached occupant at (1362 90 426), no filling performed.
Leak file written to test.pts
---- MakeFaceEdges ----
---- GrowRegions ----
Processing hull 1...
*** WARNING 10: Reached occupant at (608 1872 -247), no filling performed.
Processing hull 2...
*** WARNING 10: Reached occupant at (608 1872 -247), no filling performed.
---- WriteBSPFile ----
Wrote test.bsp
         3942 planes            78840
        16961 vertexes         203532
         5932 nodes            142368
          207 texinfo            8280
        13987 faces            279740
         9796 clipnodes         78368
         3389 leafs             94892
        15510 marksurfaces      31020
        55608 surfedges        222432
        37193 edges            148772
           17 textures         178912
              lightdata             0
              visdata               0
              entdata            3657

1.718 seconds elapsed
Peak memory usage: 71690320 (68.4M)
